196 

C	-6.103567275868566	-8.230907150200805	0.392209078578126
C	-6.445316181686798	-6.932817082814161	1.0790716244672163
C	-5.474274546526907	-6.011704529125717	1.2128610217096627
C	-5.782096991769494	-4.73630091053982	1.8729294383170136
C	-5.588984209492419	-3.525226849574267	1.0024167890612499
C	-4.20092096148289	-3.395849348122679	0.5458906651655901
C	-3.7282006610620733	-2.2499433096575365	-0.23449158516578422
N	-4.248786225342233	-1.9495279464300463	-1.525623883730354
C	-4.023293873494476	-3.033382482284695	-2.532297626624661
C	-4.859729424119832	-0.7920468334396629	-2.0521313646713577
O	-4.138701920531818	-0.35133456407554053	-3.0857218546756706
C	-6.054764568857444	-0.010795098412133209	-1.7271740373908262
C	-7.321950753093695	-0.6592105835066081	-2.22737464065472
C	-7.692482255246453	-1.9843565441810904	-1.7258557223349804
C	-8.414634246456485	0.3428109843565348	-2.400637994459597
N	-6.11148297080423	0.7225355828222992	-0.5175293356814716
C	-7.3697842507853375	0.6908601216691308	0.3110662497856285
C	-5.083959842231661	1.4861461360877275	0.0026061987606293903
O	-4.705532209737776	1.1383098201246435	1.2294807702879829
C	-4.240074966838641	2.642216535471142	-0.4237733329615335
C	-5.0582571698975025	3.8764083357730685	-0.3443953112967155
C	-6.178726710916491	3.918363628161566	-1.391687605322467
C	-5.5433753374958314	3.906525225631569	-2.7799163772500726
C	-6.919576836006118	5.225598332668032	-1.28275549749893
N	-2.929147868311137	2.6589482597969756	0.16031667122529009
C	-2.1359466230590742	1.421424010707112	-0.22279924852706473
C	-2.261994239228086	3.51463324303546	0.9921409954614887
O	-1.7389760699935073	2.9466942822495503	2.048348439347562
C	-2.0111776641568495	4.999781717255745	0.9290125802869298
C	-1.7658596325933404	5.521296186849779	-0.4154083464365251
C	-1.607193979388878	6.991279115376054	-0.6001100026452535
C	-2.812908509017257	7.776512787027919	-0.13800878419347493
C	-0.3610315406958672	7.596716062622018	-0.09736250262293825
N	-1.081934981119271	5.339277050238941	1.9888630626579258
C	-1.68234330078556	6.176168429333112	3.0721630490455456
C	0.23956200060460442	4.982582855600228	2.2337428945517623
O	0.4518839723834004	4.408741786465023	3.422676518781501
C	1.5217510179893972	5.070264874051097	1.5134240586406875
C	2.209304532599397	6.389735697842679	1.6915752009644212
N	1.5147970633141286	4.530974887506084	0.18068031656528855
C	2.2210034771592206	4.87936992010795	-0.9538878004152306
O	1.4843946334418419	5.087557444332997	-2.040206643887641
C	3.6405495757549837	5.081911130417599	-1.253373943368936
C	3.7815865843084353	6.5532037596194455	-1.728338588262583
N	4.601282248960422	4.8143723645573795	-0.24504545134466071
C	5.586904925940175	3.82462375770775	-0.18700151102516957
O	6.806259814632919	4.213812432137313	-0.010956482623171308
C	5.39598591636036	2.3583559660917324	-0.3110817866122272
C	5.119760778844953	1.747697276622884	0.9985979350209425
C	6.097126092758837	1.8789258631909496	2.105117975442335
C	5.5097616700677206	1.0757281348443983	3.288046054059622
C	6.169140995810044	3.3199500605794516	2.6520464337537257
N	6.38883021005643	1.723344556300898	-1.1511294463136872
C	7.2540049021715864	2.6915075080605035	-1.8928536967761935
C	6.6136022286140514	0.3677950362715195	-1.3768697284979432
O	6.636898300356953	0.0038295636143650825	-2.6239062044707553
C	6.835237789497922	-0.7646627053858839	-0.4434491208394858
C	8.27331130239382	-1.2033618037018685	-0.6714272109757782
C	8.524945958558241	-1.6626416032638163	-2.072499384002688
C	8.749890255135046	-2.1932858905390984	0.38673949314392236
N	5.847923359647535	-1.760766765031507	-0.7703402216504733
C	4.955932090056487	-2.507791985452271	-0.002668506618001806
O	3.6986833276996784	-2.1130201030574858	-0.033228124434182986
C	5.131275276210437	-3.669996161819396	0.8531343704711281
C	6.032129867821672	-4.768343729829282	0.4350900644805237
C	5.734476416114914	-5.526746120434173	-0.8125238321178044
C	6.884735494228253	-6.56624144876452	-0.9128709274646034
C	5.809941170983271	-4.753816741653619	-2.087226375840679
N	3.85838193875653	-4.2058367579877824	1.386191266990176
C	3.585237048527077	-3.831098239524895	2.777037854167128
C	2.9484713643853206	-5.0248309126215265	0.7336589858967907
O	2.627546309971149	-6.12194172272567	1.3273294878780584
C	2.257963840969322	-4.859715501358445	-0.5751816711757041
N	0.9716110316921044	-5.553139536892016	-0.5738725891737227
C	0.8589345091380274	-6.97294716425008	-0.8062144357783699
C	-0.2831721272947815	-4.842566965678126	-0.3333778478402618
O	-1.2499492580762495	-5.174325692895548	-1.0589175505721296
C	-0.3534684838888234	-3.8147212195073914	0.7133538574058402
C	-0.46411947847296114	-4.445929831435394	2.0783005432694366
C	-1.6149160459922733	-5.355997976902996	2.287895845010181
N	-1.234771030672224	-2.7162559721325854	0.5766418814969597
C	-2.2126193829482834	-2.231496377366235	-0.25516151214905813
O	-1.8079578674794843	-1.6060756866119357	-1.31599559622604
O	-3.964642558457259	-4.544694765019408	-0.26975066482546306
C	-6.135366408914445	-2.3489347216737047	1.754034660509929
H	-6.970572476626495	-8.901241404241365	0.33434959882503484
H	-5.780661841708951	-7.9772192903941495	-0.6674898375113638
H	-5.25263538537832	-8.737081682894388	0.8569178469687333
H	-7.414053698083609	-6.791468107041779	1.4476683552467404
H	-4.51038042036216	-6.3338815736043745	0.8466509895799984
H	-5.11616426765694	-4.681907322978306	2.7737035102208814
H	-6.855385384287829	-4.718822756984614	2.1815116254653453
H	-6.297092186066744	-3.718258722649987	0.1301242745882288
H	-3.4928252831731568	-3.551638176605791	1.4280638578713913
H	-3.9972555110673103	-1.3183627343688495	0.38029715953865073
H	-3.2330209101316054	-3.714829576422125	-2.243863361120535
H	-4.938672553080347	-3.5537007996894063	-2.80504794656956
H	-3.701504321553806	-2.506304112121483	-3.494420203159638
H	-6.024811383427844	0.8628511194768697	-2.494290512991823
H	-7.017850474791551	-0.8952444157870458	-3.3337780402830934
H	-7.092996642330275	-2.8134445015674445	-2.2104237553192307
H	-7.737730335744108	-2.1837513449808665	-0.6736285685394875
H	-8.751119378625773	-2.179459796560476	-2.1034208875495697
H	-8.2357606209607	1.3411747075719893	-1.983110730561573
H	-8.65414760383798	0.5758989338853665	-3.494026914339716
H	-9.412545535890379	-0.06641667050337244	-2.0448778294825427
H	-7.009543939113554	0.5771747935800555	1.3603113052981792
H	-8.069412896861929	-0.05259585578065663	-0.008740496255290406
H	-7.879788185898215	1.6493917939018825	0.2860002213394466
H	-4.017013898736269	2.5265278230794586	-1.546078634536266
H	-4.539271896273101	4.815093131449344	-0.27464908182781794
H	-5.686784587167173	3.865038791683397	0.6363672204585398
H	-6.840877365383094	3.067595388502358	-1.3191865909162726
H	-6.038184731973515	4.605367954089616	-3.481287631502528
H	-4.523717195823583	4.39030505143734	-2.6095166394554945
H	-5.3098824730109335	2.914868180520235	-3.1654194037129058
H	-7.560734048754825	5.206271569213796	-0.40063127740605864
H	-7.447275910694272	5.469428025894416	-2.2312726982030435
H	-6.1255417572312405	6.0105875648868485	-1.1160258632908326
H	-1.4725470535261247	1.1450914926229978	0.6029361775780192
H	-1.6667745453528928	1.5802049708918562	-1.2001903132443468
H	-2.8754090682340196	0.6105892352343683	-0.31561144611042263
H	-3.0041677523242383	5.428137964666866	1.2564919646478663
H	-2.6196817906589125	5.236632197614154	-1.0869574401191737
H	-0.9167435442505038	4.993671384364481	-0.9469728465804302
H	-1.598356861310178	7.203054140222128	-1.7392820542551588
H	-3.1010403591054865	7.534594373980264	0.9315367082202499
H	-2.515442651685417	8.84289504059262	-0.13133626312887173
H	-3.6633594695427862	7.704696846910094	-0.8462271812815608
H	-0.32139952202129335	8.717556317008551	-0.3123985567887975
H	0.5589341141199946	7.184196151517507	-0.5807214020551248
H	-0.3097333534506178	7.537295472834194	0.9942555936247494
H	-1.4407253703668872	5.6733892197059514	4.060562678575854
H	-2.7685338052539596	6.207304538624376	3.023846595381511
H	-1.320022033548798	7.207170831267605	3.066746268886074
H	2.284654282942162	4.3478093243212514	2.01949059677787
H	3.14799504121525	6.335958045563873	2.300278800515444
H	1.52779135126293	7.016842050296999	2.329606541612762
H	2.447889732534719	6.911836198403312	0.7747977022873123
H	0.8283189914849275	3.6892456228164203	0.040465974980581826
H	3.9340670253484484	4.508672012108423	-2.1815262881101365
H	2.78885676683511	6.9419415423298245	-1.9999106020051007
H	4.223912928493418	7.122567373920008	-0.8807427327728965
H	4.435177863156454	6.6153350572907055	-2.5984247586162446
H	4.584525653992281	5.492316579231799	0.5918480862227398
H	4.373342651997107	2.299162137589976	-0.8701793143923303
H	4.153357383274291	2.2493641045976003	1.3874775722609285
H	4.766827646299929	0.6884009608346366	0.8554973479722197
H	7.099084110262991	1.5102174505641666	1.9251816459219273
H	6.043205899960832	0.09559340447949269	3.3079838321050965
H	5.592278651456442	1.639248993748408	4.243420595834642
H	4.4604746905147	0.8447875034113025	3.0535559544063156
H	5.361114906006068	3.947318661868316	2.2607547116593336
H	5.982580417761294	3.3161437470517416	3.774003577315872
H	7.189880488701564	3.736713668422458	2.571165779446376
H	6.712436172627668	3.6062422327631123	-2.160066024887347
H	7.460931882258925	2.1864628331795113	-2.874721319054333
H	8.19006932507452	2.8839093604941346	-1.3743740833424176
H	6.817804074772238	-0.41927539193736474	0.6092283638882738
H	8.957073678678638	-0.314829273361417	-0.5233444920790526
H	8.864867461461326	-0.7875387529821943	-2.679288402029287
H	7.608365672556102	-2.0251081843073013	-2.5292977717310814
H	9.327823669018109	-2.445893539780208	-2.1010818734499246
H	9.654493735085753	-1.8533555772849473	0.9225607583738133
H	9.023554733488176	-3.130339888031366	-0.11101120024402598
H	7.909347729124012	-2.3462157586372445	1.096061820892378
H	5.768362667885872	-1.920829303269896	-1.8268411731120593
H	5.64117293984383	-3.2348284403840655	1.7792611959639115
H	6.0301452628001835	-5.571741810075277	1.2528323876327074
H	7.097743319787015	-4.49700043244155	0.38028905936768903
H	4.846190717425674	-6.190999145229412	-0.7174429983006066
H	6.706304865206246	-7.264379607785468	-0.07043958848837471
H	7.8446512247963955	-6.063825193475586	-0.6924669993329094
H	6.843200040879164	-7.128492240742103	-1.846008090370097
H	4.93693648855254	-4.110412733228002	-2.26869144560863
H	6.0243825951731145	-5.476528163537787	-2.908226409663533
H	6.7261113421270196	-4.121054413516523	-2.0227781148130832
H	4.182111156583919	-4.442380428295374	3.4829481647504275
H	2.5533223054473173	-3.850569318107698	3.0847856158492455
H	3.942155470291456	-2.7837205681825936	2.9144272826813453
H	2.0134652814657215	-3.815692338964534	-0.8395876795343592
H	2.820450620144533	-5.356743905012114	-1.4221546034156736
H	1.535847809225519	-7.214501749082963	-1.6617026741840388
H	1.1137061971768352	-7.573137589475975	0.09820572226625882
H	-0.1590715033667948	-7.2667799638974735	-1.1485101969421356
H	0.7513764884500393	-3.3435696776764767	0.7530388816201908
H	-0.6124619896355367	-3.561964204012079	2.7811523036223957
H	0.5056110801878441	-4.868285210353102	2.4287077973414974
H	-2.060227252144205	-5.690848146687694	1.3257028799657227
H	-1.235362449963374	-6.2801955887315275	2.7930948264737587
H	-2.360516613146501	-4.943163243087694	2.9867136584151823
H	-0.969701464819636	-2.0049883439480465	1.421803185121521
H	-4.796021594496066	-4.729154888401177	-0.7943274685843436
H	-5.75106120667664	-2.4708283038343852	2.8143353434277625
H	-7.238499699703994	-2.374621462596272	1.841245630750139
H	-5.715258407177824	-1.3929256252113837	1.423484742352857
