34 

C	1.8528434659819657	-0.531185854270927	-0.7074074472879417
C	1.5572289037114244	0.7847403321833532	0.025141792647584572
C	0.78340530384534	1.6398323190081507	-0.9050091938521342
C	-0.6841718532418154	1.4629939684320734	-0.9097677398866275
C	-1.260493553073981	0.1786093295620688	-1.3632871825835782
C	-1.8611500821229015	-0.05368488029261425	-0.024971715424455282
C	-1.3147593849879988	1.2704446700779606	0.4297446464205043
C	-0.36905329128378894	1.2484472916847238	1.5754609810521176
C	0.9141364976119672	0.5503045598444026	1.3579626348638794
C	0.8386290167449381	-0.9449348155069838	1.6219768267134764
C	-0.000758555434624913	-1.6545590530555303	0.5645836779872431
C	-1.416306105102964	-1.26020739470518	0.6958550823121475
C	0.6138082428371885	-1.4035148932716157	-0.7820793100737792
C	-0.3466810699245604	-0.9097907934544167	-1.8076297294387618
H	2.088903699509233	-0.22815430935673434	-1.7638754444520102
H	2.7108317559781674	-1.0343097241870818	-0.26380430588699916
H	2.5785963387326016	1.261659381415157	0.13008031417494192
H	1.1665173260283972	1.4834883654917363	-1.9336128070313108
H	1.0054172522557554	2.707694139055416	-0.6607700117585816
H	-1.1473509024461623	2.363554842331284	-1.4165529671338966
H	-2.0326739163199314	0.3373647272528532	-2.175672621273
H	-2.992354672452507	-0.053845223410316695	-0.0783140575607895
H	-2.1509668116542815	1.9951488941060316	0.6658118770434248
H	-0.1547165647215882	2.3042773412542115	1.8611091353508011
H	-0.8867745251388971	0.7771699269975003	2.4427635861710635
H	1.6341449869477245	0.9326429822636763	2.1436629769597357
H	1.8710675685098652	-1.3367108546981068	1.5705904875992707
H	0.4076060717281418	-1.1210518285430544	2.638875266612825
H	0.0667034706276785	-2.7471266390846174	0.8542182988777232
H	-1.6313325868147286	-1.1066174584447603	1.794331117945853
H	-2.059930790809428	-2.1148070661265215	0.40201233118239166
H	0.9975041235072508	-2.399060001899136	-1.1622563557514376
H	0.21185860164209758	-0.6223357061609295	-2.710761829442602
H	-0.9897279606695961	-1.7764765744917976	-2.108408315076984
