8
Coordinates from ORCA-job run
  F   -1.36071750263840      1.05990731125891      0.30117556196699
  C   -0.72558049658904     -0.14174575671651      0.00208172081967
  C   0.76901052138111      0.06698557922871     -0.02093370787145
  H   1.27985275772671     -0.87012288772595     -0.25482533354305
  H   -1.09972495621085     -0.47643631328414     -0.96829154886166
  H   -1.01869749371280     -0.86537324884060      0.76632671534726
  H   1.03764409021868      0.80730478500607     -0.77564403715648
  H   1.11821307982460      0.42048053107351      0.95011062929873
