92 

C	8.902860626362646	-3.9381142986781557	2.4454096145812274
C	10.044273589795669	-2.9934546566251172	2.392621939072364
C	9.799847952097137	-1.5691841146966943	2.6796958606120658
C	8.894168067058276	-0.7947372449796084	1.7840397032515591
C	7.522411995593258	-1.342488623560797	1.7466614703915917
C	6.546225131268055	-0.5093294925445188	0.8820738077442695
C	7.053195136832329	-0.4815420511668665	-0.4969761994801853
C	6.297311280388827	0.14311203971838107	-1.5807638251305736
C	5.945716808092484	1.5578306817854617	-1.5992764884216215
C	5.040220306782486	2.0228683196458404	-0.5185923016244914
C	3.7408333041027415	1.2728414224810467	-0.4745295097469299
C	2.997981369363978	1.4195233887893335	-1.7662150841299902
C	2.662491704113214	2.830022382332114	-2.0773791915349635
C	1.7995992134142287	3.5074247440560047	-1.051272666257596
C	0.4693189274204335	2.8181058440953097	-0.8624467504043272
C	-0.3302023305714296	2.7602842272678765	-2.1213395221366524
C	-1.6647875446128242	2.04162978436642	-1.8384394258387153
C	-2.480632656945126	1.9580585114701596	-3.0777228705245854
C	-3.8051010677807326	1.3425856034009522	-2.9120242992047216
C	-3.97443518377106	-0.03342044940634026	-2.4798188735127358
C	-3.5516941511892277	-0.5377988416467235	-1.174591231634668
C	-4.15950279464238	0.18119706248520195	0.005523264179665718
C	-5.668534898341858	0.14734936792300282	0.023090266489759058
C	-6.272403189152367	-1.2059199444119706	0.08175597129822385
C	-7.78089336813761	-1.0909380643260604	0.04918468432026734
C	-8.27454130605905	-0.31154224100620864	1.2348410829525445
C	-9.760960366779251	-0.19771871488890197	1.1975940761432502
C	-10.484279176237111	-1.4903937946027983	1.2447901096164622
C	-10.351360589695206	-2.3269907264475247	2.4575500343102994
C	-9.020306052247319	-2.8365358084112056	2.8540697603322105
H	8.589428750386592	-4.359582248693253	1.452891461242873
H	9.281326000013818	-4.88205471434768	2.976097697310215
H	8.04882575324774	-3.631899608525844	3.065463046554849
H	10.513153641195114	-3.0961543055717815	1.3750460444401258
H	10.819586377365425	-3.3405252653635937	3.148128734259619
H	10.813331016077006	-1.051094947597006	2.6010857950006354
H	9.545685590150908	-1.398915972836765	3.771312457163385
H	8.805420266591296	0.281494207520615	2.1303813108213907
H	9.357057843824109	-0.6857680823427921	0.7682604719610062
H	7.121412046137964	-1.4442394997092074	2.763797222607777
H	7.531141402307843	-2.324911110600158	1.216741148268612
H	5.564329431549524	-1.0038439883988317	0.9934456068125033
H	6.487580050451506	0.4925586564985346	1.388447750663911
H	8.061774211003595	0.06484897452253047	-0.46857543190085726
H	7.259110735776579	-1.550640762363485	-0.8038172628275553
H	6.927268338731673	-0.041290490157094226	-2.5358019457451446
H	5.368884864455914	-0.46883816970252046	-1.8572174457372852
H	5.489558151431953	1.8826228122146642	-2.586876575165878
H	6.911577755948513	2.1768835718665343	-1.6047582084178118
H	4.821517982256686	3.1276036663029094	-0.802154196067359
H	5.44079411042051	2.1309031787467876	0.48330404181299946
H	3.124201957941012	1.5603775698302957	0.4031374874962481
H	4.005207931091188	0.17618873543025793	-0.39054467561140827
H	2.100877151191713	0.7503119859116129	-1.7574209302989168
H	3.673779273315357	1.035193520149299	-2.5817186455526735
H	3.5376221145266524	3.4691622884315843	-2.2651654194110478
H	2.082663489119597	2.8795601255304866	-3.0529922895689405
H	2.2736750974035473	3.612852763147539	-0.07574869955127063
H	1.5850994273348824	4.531150019982685	-1.427321083029454
H	-0.10778476293811004	3.4663471437971496	-0.14509731572143203
H	0.5695956663439775	1.837021192801598	-0.3557395520164942
H	0.18042566376188462	2.162966929268024	-2.879952396710625
H	-0.4923403569733881	3.778345140587416	-2.488809690637391
H	-1.4218560794469741	1.0191140511816463	-1.4940855314996735
H	-2.176249214105589	2.5626207783264943	-1.0212313571007832
H	-2.570748606475928	2.9695153727309425	-3.5705664093161946
H	-1.943166708620738	1.3474889313662453	-3.8784849155386176
H	-4.307125875237016	1.4344458120153505	-3.9517420230670073
H	-4.405191717428288	2.079581620372631	-2.2752161829335544
H	-3.447506674487211	-0.7031751182801338	-3.2558666339120363
H	-5.062223191308234	-0.3735369518752592	-2.6538996962578754
H	-2.513965614812173	-0.7605024840174439	-0.9700307676471925
H	-4.033539207339411	-1.594583373327555	-1.0955917978043903
H	-3.8253690907924662	-0.359562208161224	0.9188852266409795
H	-3.8273720942869076	1.2170208991244027	0.09909531430322045
H	-5.937038195506206	0.66561543472872	0.9964895081573518
H	-6.08515727717688	0.7840848220148771	-0.7643235049785004
H	-5.949808335533213	-1.91228065491327	-0.7140319131039484
H	-6.047957449843888	-1.7372524774358777	1.0537710893398118
H	-8.022566612392907	-0.5207960340601493	-0.9030606531471326
H	-8.271886844908625	-2.0617783005104333	-0.08728400743732186
H	-7.849654718130483	-0.7230384401828254	2.14450919896121
H	-7.873339801523582	0.7562523694346036	1.187723671870333
H	-10.096409078057595	0.4853533287463093	2.0500599448901373
H	-10.09624341787693	0.39125510240863937	0.28168419015370366
H	-11.59744330380719	-1.2585948771744904	1.0957787129858518
H	-10.225810512150641	-2.073728040951858	0.3194500129659416
H	-11.029817606930246	-3.2139327050711217	2.311684085160341
H	-10.76628001835618	-1.7360021888788886	3.332623163770741
H	-9.164790456455359	-3.870590001173491	3.3430973534415633
H	-8.586910978064262	-2.25585943671402	3.723068893180837
H	-8.293179026912993	-3.0364928584685025	2.061598450201693
