15
Coordinates from ORCA-job run
  Br  2.16692117619412     -0.68933366418565     -1.00145777352525
  O   -2.55059251394916     -0.52385870034265     -0.61369268550731
  O   -0.85134551486176     -0.97914401745963     -1.92384307964304
  N   1.85247375610077      0.48626374018035      2.51907660642919
  N   -0.00879749388754     -3.09166828439138      0.92506040896577
  N   -1.36059598545910     -0.50072463644774     -0.91548046308976
  C   0.77964125974593     -0.63320250417271      0.38380153683788
  C   -0.45512726734128      0.23631153760809      0.02851910229276
  C   1.39424199834746     -0.03473155859396      1.56972526503383
  C   0.36447012687068     -2.00385114581704      0.67928395184696
  C   -0.12780810891016      1.59880306464040     -0.54767042053034
  H   -1.03747136382847      0.32449696043692      0.94953038326753
  H   0.34020721342484      1.49894517665627     -1.52641918228099
  H   0.54480702834470      2.13990995464176      0.12068650776765
  H   -1.05102431079104      2.17278407724697     -0.64812015786489
