12
Coordinates from ORCA-job run
  F   0.07082693819409     -0.11753734630939     -1.78752513017393
  N   1.53043107125575     -0.15142122651658     -0.04710285531615
  N   -0.37908409656253     -1.49087090310177     -0.03452438363474
  C   0.13711047840125     -0.19937067353384     -0.39985725185289
  C   -0.68967723224145      0.98381017628566      0.09724556617474
  H   -1.71820363103291      0.90696774617399     -0.26368527600717
  H   -0.69710918350672      1.00455848991171      1.18927126220687
  H   -0.27057157041453      1.92252556751852     -0.27314659635173
  H   1.67693693260449     -0.42214354839430      0.91581464049907
  H   1.88693045038656      0.78682001482759     -0.17411878906214
  H   -0.16245108859247     -1.71678235034793      0.92669534748407
  H   -1.38413906849153     -1.50655594651364     -0.14906653396599
